Version 4
SHEET 1 2028 680
WIRE 160 -224 -112 -224
WIRE 288 -224 160 -224
WIRE 608 -224 288 -224
WIRE 1088 -224 688 -224
WIRE 1088 -192 1088 -224
WIRE 1072 -128 1040 -128
WIRE 1104 -112 1104 -128
WIRE 1120 -112 1120 -128
WIRE 1120 -112 1104 -112
WIRE 1136 -112 1136 -128
WIRE 1136 -112 1120 -112
WIRE 1184 -112 1136 -112
WIRE 672 -96 672 -176
WIRE 448 -80 0 -80
WIRE 896 -80 448 -80
WIRE 1184 -80 1184 -112
WIRE 0 -48 0 -80
WIRE 448 -48 448 -80
WIRE 896 -48 896 -80
WIRE 160 -16 160 -224
WIRE 176 -16 160 -16
WIRE 1408 -16 1408 -32
WIRE -112 0 -112 -224
WIRE -80 0 -112 0
WIRE 176 0 80 0
WIRE 368 0 240 0
WIRE 816 0 528 0
WIRE 1040 0 1040 -128
WIRE 1040 0 976 0
WIRE 1072 0 1040 0
WIRE 176 16 160 16
WIRE 160 32 160 16
WIRE 176 32 160 32
WIRE -80 48 -96 48
WIRE 160 48 160 32
WIRE 176 48 160 48
WIRE 368 48 352 48
WIRE 816 48 800 48
WIRE 1584 80 1504 80
WIRE 1648 80 1584 80
WIRE 0 112 0 96
WIRE 0 112 448 96
WIRE 896 112 448 96
WIRE 896 112 896 96
WIRE 1072 112 1072 0
WIRE 1152 112 1072 112
WIRE 1312 112 1152 112
WIRE 0 128 0 112
WIRE 448 128 448 96
WIRE 896 128 896 112
WIRE 160 144 160 48
WIRE -240 240 -96 48
WIRE -240 240 352 48
WIRE -240 240 816 48
WIRE -240 288 -240 240
WIRE 144 304 624 -176
WIRE 240 304 1088 -128
WIRE 240 304 1312 48
WIRE 608 320 608 256
WIRE 720 320 720 272
WIRE 1472 320 1472 288
WIRE 1344 336 1344 288
WIRE -240 400 -240 368
WIRE -64 400 0 -80
WIRE -64 400 0 112
WIRE -64 400 -64 368
WIRE -64 400 -240 400
WIRE 32 400 32 368
WIRE -64 432 -64 400
WIRE 144 432 144 384
WIRE 240 432 240 384
WIRE 240 432 144 432
WIRE 608 432 608 400
WIRE 608 432 240 432
WIRE 672 432 608 432
WIRE 720 432 720 400
WIRE 720 432 672 432
WIRE 848 432 848 400
WIRE 848 432 720 432
WIRE 672 448 672 432
FLAG -64 432 0
FLAG 160 144 0
FLAG 1184 -80 0
FLAG 672 -96 0
FLAG 1344 336 0
FLAG 672 448 0
FLAG 608 256 8V
IOPIN 608 256 Out
FLAG 720 272 -8V
IOPIN 720 272 Out
FLAG 1408 -32 8V
IOPIN 1408 -32 In
FLAG 1472 320 -8V
IOPIN 1472 320 In
FLAG 848 320 SW2
IOPIN 848 320 Out
FLAG 1504 176 SW2
IOPIN 1504 176 In
FLAG 288 -144 0
FLAG 1648 160 0
FLAG 1152 192 0
FLAG 1584 80 codeword
SYMBOL Digital\\dflop 0 -48 R0
WINDOW 3 8 12 Left 2
SYMATTR Value Trise 1n Tfall 1n
SYMATTR InstName A1
SYMBOL Digital\\dflop 448 -48 R0
WINDOW 3 -174 169 Left 2
SYMATTR Value Trise 1n Tfall 1n Vhigh 2
SYMATTR InstName A2
SYMBOL Digital\\dflop 896 -48 R0
WINDOW 3 8 12 Left 2
SYMATTR Value Trise 1n Tfall 1n
SYMATTR InstName A3
SYMBOL voltage -240 272 R0
WINDOW 3 -158 110 Left 2
WINDOW 123 0 0 Left 0
WINDOW 39 0 0 Left 0
SYMATTR Value PULSE(0 1 0.5n 1p 1p 0.5m 1m)
SYMATTR InstName V3
SYMBOL Digital\\xor 224 -48 R0
SYMATTR InstName A4
SYMBOL Digital\\xor 1040 -176 R270
SYMATTR InstName A5
SYMBOL sw 704 -224 M270
SYMATTR InstName S1
SYMATTR Value MYSW
SYMBOL Switches\\ADG1634 1408 128 M0
SYMATTR InstName U1
SYMBOL voltage 608 304 R0
WINDOW 123 0 0 Left 0
WINDOW 39 0 0 Left 0
SYMATTR InstName V4
SYMATTR Value 8
SYMBOL voltage 720 304 R0
WINDOW 123 0 0 Left 0
WINDOW 39 0 0 Left 0
SYMATTR InstName V5
SYMATTR Value -8
SYMBOL voltage 848 304 R0
WINDOW 123 0 0 Left 0
WINDOW 39 0 0 Left 0
SYMATTR InstName V6
SYMATTR Value PULSE(8 -8 0.6n 0.1n 0.1n 3.5m 10m)
SYMBOL voltage 240 288 R0
WINDOW 123 0 0 Left 0
WINDOW 39 0 0 Left 0
SYMATTR InstName V7
SYMATTR Value PWL(0 1 0.9m 1 0.92m 1 1.9m 1 1.92m 0 2.9m 0 2.92m 1 3.92m 1)
SYMBOL voltage 144 288 R0
WINDOW 3 -54 133 Left 2
WINDOW 123 0 0 Left 0
WINDOW 39 0 0 Left 0
SYMATTR Value PULSE(-5 5 0 0.1n 0.1n 3.8m 10m)
SYMATTR InstName V8
SYMBOL res 272 -240 R0
SYMATTR InstName R1
SYMATTR Value 100
SYMBOL res 1632 64 R0
SYMATTR InstName R2
SYMATTR Value 100
SYMBOL res 1136 96 R0
SYMATTR InstName R3
SYMATTR Value 1000
TEXT -400 456 Left 2 !.tran 0 10m 0 1
TEXT 808 448 Left 2 !.model MYSW SW(Ron=1E-15 Roff=1Meg)
