Version 4
SHEET 1 1556 680
WIRE 160 -224 -112 -224
WIRE 608 -224 160 -224
WIRE 1088 -224 688 -224
WIRE 1088 -192 1088 -224
WIRE 1104 -112 1104 -128
WIRE 1120 -112 1120 -128
WIRE 1120 -112 1104 -112
WIRE 1136 -112 1136 -128
WIRE 1136 -112 1120 -112
WIRE 1184 -112 1136 -112
WIRE 624 -96 624 -176
WIRE 1184 -80 1184 -112
WIRE 0 -48 0 -80
WIRE 448 -48 448 -80
WIRE 896 -48 896 -80
WIRE 160 -16 160 -224
WIRE 176 -16 160 -16
WIRE -112 0 -112 -224
WIRE -80 0 -112 0
WIRE 176 0 80 0
WIRE 368 0 240 0
WIRE 816 0 528 0
WIRE 1072 0 1072 -128
WIRE 1072 0 976 0
WIRE 176 16 160 16
WIRE 160 32 160 16
WIRE 176 32 160 32
WIRE -80 48 -96 48
WIRE 160 48 160 32
WIRE 176 48 160 48
WIRE 368 48 352 48
WIRE 816 48 800 48
WIRE 0 128 0 96
WIRE 448 128 448 96
WIRE 896 128 896 96
WIRE 160 144 160 48
WIRE 1552 176 1504 176
WIRE -240 288 -240 240
WIRE -64 288 -64 240
WIRE 32 288 32 240
WIRE 1344 320 1344 288
WIRE 1472 320 1472 288
WIRE 1472 320 1344 320
WIRE 1552 320 1552 176
WIRE 1552 320 1472 320
WIRE 1472 336 1472 320
WIRE -240 400 -240 368
WIRE -64 400 -64 368
WIRE -64 400 -240 400
WIRE 32 400 32 368
WIRE 32 400 -64 400
WIRE -64 432 -64 400
FLAG -64 432 0
FLAG -64 240 RST
IOPIN -64 240 Out
FLAG 32 240 PRE
IOPIN 32 240 Out
FLAG 0 128 RST
IOPIN 0 128 In
FLAG 448 128 RST
IOPIN 448 128 In
FLAG 896 128 RST
IOPIN 896 128 In
FLAG 0 -80 PRE
IOPIN 0 -80 In
FLAG 448 -80 PRE
IOPIN 448 -80 In
FLAG 896 -80 PRE
IOPIN 896 -80 In
FLAG -240 240 CLK
IOPIN -240 240 Out
FLAG -96 48 CLK
IOPIN -96 48 In
FLAG 352 48 CLK
IOPIN 352 48 In
FLAG 800 48 CLK
IOPIN 800 48 In
FLAG 160 144 0
FLAG 1184 -80 0
FLAG 624 -96 0
FLAG 1472 336 0
SYMBOL Digital\\dflop 0 -48 R0
SYMATTR InstName A1
SYMBOL Digital\\dflop 448 -48 R0
SYMATTR InstName A2
SYMBOL Digital\\dflop 896 -48 R0
SYMATTR InstName A3
SYMBOL voltage -64 272 R0
WINDOW 123 0 0 Left 0
WINDOW 39 0 0 Left 0
SYMATTR InstName V1
SYMATTR Value 0
SYMBOL voltage 32 272 R0
WINDOW 123 0 0 Left 0
WINDOW 39 0 0 Left 0
SYMATTR InstName V2
SYMATTR Value 0
SYMBOL voltage -240 272 R0
WINDOW 3 -158 110 Left 2
WINDOW 123 0 0 Left 0
WINDOW 39 0 0 Left 0
SYMATTR InstName V3
SYMATTR Value PULSE(0 1 0 0 0 0.5m 1m)
SYMBOL Digital\\xor 224 -48 R0
SYMATTR InstName A4
SYMBOL Digital\\xor 1040 -176 R270
SYMATTR InstName A5
SYMBOL sw 592 -224 R270
SYMATTR InstName S1
SYMATTR Value MYSW
SYMBOL Switches\\ADG1634 1408 128 R0
SYMATTR InstName U1
TEXT -400 456 Left 2 !.tran 0 10m 0 1
TEXT 808 448 Left 2 !.model MYSW SW(Ron=1 Roff=1Meg Vt=.5 Vh=-.4)
