Version 4
SHEET 1 1064 680
WIRE -48 -320 -224 -320
WIRE 224 -320 32 -320
WIRE 384 -320 224 -320
WIRE 224 -256 224 -320
WIRE -224 -192 -224 -320
WIRE -48 -192 -224 -192
WIRE 96 -192 32 -192
WIRE -224 -128 -224 -192
WIRE -160 -128 -224 -128
WIRE 96 -128 -80 -128
WIRE 464 -96 352 -96
WIRE -224 -64 -224 -128
WIRE 96 -64 -224 -64
WIRE -224 0 -224 -64
WIRE 96 0 -224 0
WIRE -224 64 -224 0
WIRE 96 64 -224 64
WIRE 384 64 384 -320
WIRE 384 64 352 64
WIRE -224 128 -224 64
WIRE -48 128 -224 128
WIRE 96 128 32 128
WIRE -224 240 -224 128
WIRE -48 240 -224 240
WIRE 160 240 160 176
WIRE 160 240 32 240
WIRE 288 240 288 176
WIRE 464 240 464 -16
WIRE 464 240 288 240
WIRE 288 272 288 240
WIRE -224 304 -224 240
FLAG 288 272 0
FLAG -224 304 0
SYMBOL voltage 48 -320 R90
WINDOW 123 0 0 Left 0
WINDOW 39 0 0 Left 0
SYMATTR InstName V1
SYMATTR Value 15
SYMBOL Switches\\ADG1209 224 64 R0
SYMATTR InstName U3
SYMBOL voltage 48 240 R90
WINDOW 0 -32 56 VBottom 2
WINDOW 3 32 56 VTop 2
WINDOW 123 0 0 Left 0
WINDOW 39 0 0 Left 0
SYMATTR InstName V2
SYMATTR Value -15
SYMBOL voltage 48 -192 R90
WINDOW 0 -32 56 VBottom 2
WINDOW 3 -34 206 VTop 2
WINDOW 123 0 0 Left 0
WINDOW 39 0 0 Left 0
SYMATTR InstName V3
SYMATTR Value SINE(0.5 0.5 100 0 0 0)
SYMBOL voltage -64 -128 R90
WINDOW 0 -32 56 VBottom 2
WINDOW 3 -34 253 VTop 2
WINDOW 123 0 0 Left 0
WINDOW 39 0 0 Left 0
SYMATTR InstName V4
SYMATTR Value PULSE(0 1 0 0 0 0.005 0.01)
SYMBOL voltage 48 128 R90
WINDOW 0 -32 56 VBottom 2
WINDOW 3 69 282 VTop 2
WINDOW 123 0 0 Left 0
WINDOW 39 0 0 Left 0
SYMATTR InstName V5
SYMATTR Value PULSE(0 3.3 0 0 0 0.25m 0.5m)
SYMBOL res 448 -112 R0
SYMATTR InstName R1
SYMATTR Value 10000
TEXT 424 -376 Left 2 !.tran 0 20M 0 1
